
  ACD/LABS04222323523D

 73 76  0  0  0  0  0  0  0  0  2 V2000
   19.8676  -19.1177   -1.5852 O   0  5  0  0  0  0  0  0  0  0  0  0
   21.6176  -17.7372   -1.5534 O   0  0  0  0  0  0  0  0  0  0  0  0
   27.7926  -11.3449   -1.3889 O   0  5  0  0  0  0  0  0  0  0  0  0
   26.2694  -12.9697   -1.4323 O   0  0  0  0  0  0  0  0  0  0  0  0
   18.7120  -11.9403   -1.2028 N   0  0  0  0  0  0  0  0  0  0  0  0
   20.6948   -9.9176   -1.2420 N   0  5  0  0  0  0  0  0  0  0  0  0
   16.6792   -9.9261   -1.2508 N   0  5  0  0  0  0  0  0  0  0  0  0
   18.6520   -7.9140   -1.2977 N   0  0  0  0  0  0  0  0  0  0  0  0
   19.7942  -12.7420   -1.1871 C   0  0  0  0  0  0  0  0  0  0  0  0
   21.5042  -10.9948   -1.2120 C   0  0  0  0  0  0  0  0  0  0  0  0
   17.6235  -12.7312   -1.1933 C   0  0  0  0  0  0  0  0  0  0  0  0
   21.4739   -8.8181   -1.2818 C   0  0  0  0  0  0  0  0  0  0  0  0
   15.8963  -11.0195   -1.2741 C   0  0  0  0  0  0  0  0  0  0  0  0
   19.7297   -7.1105   -1.3373 C   0  0  0  0  0  0  0  0  0  0  0  0
   17.5621   -7.1222   -1.3162 C   0  0  0  0  0  0  0  0  0  0  0  0
   15.8641   -8.8548   -1.3049 C   0  0  0  0  0  0  0  0  0  0  0  0
   21.1173  -12.3295   -1.1815 C   0  0  0  0  0  0  0  0  0  0  0  0
   19.3583  -14.1568   -1.1795 C   0  0  0  0  0  0  0  0  0  0  0  0
   22.8218  -10.5756   -1.2277 C   0  0  0  0  0  0  0  0  0  0  0  0
   16.3017  -12.3365   -1.2347 C   0  0  0  0  0  0  0  0  0  0  0  0
   21.0557   -7.4979   -1.3319 C   0  0  0  0  0  0  0  0  0  0  0  0
   18.0198  -14.1321   -1.1515 C   0  0  0  0  0  0  0  0  0  0  0  0
   22.8005   -9.1973   -1.2723 C   0  0  0  0  0  0  0  0  0  0  0  0
   16.2416   -7.5280   -1.3195 C   0  0  0  0  0  0  0  0  0  0  0  0
   14.5740  -10.6443   -1.3497 C   0  0  0  0  0  0  0  0  0  0  0  0
   17.9666   -5.7197   -1.3620 C   0  0  0  0  0  0  0  0  0  0  0  0
   19.3008   -5.7093   -1.3935 C   0  0  0  0  0  0  0  0  0  0  0  0
   14.5546   -9.2737   -1.3631 C   0  0  0  0  0  0  0  0  0  0  0  0
   20.2863  -15.3740   -1.1968 C   0  0  0  0  0  0  0  0  0  0  0  0
   24.0278  -11.5107   -1.2136 C   0  0  0  0  0  0  0  0  0  0  0  0
   17.0435  -15.2964   -1.0919 C   0  0  0  0  0  0  0  0  0  0  0  0
   23.9858   -8.2439   -1.3163 C   0  0  0  0  0  0  0  0  0  0  0  0
   13.3797  -11.5726   -1.4182 C   0  0  0  0  0  0  0  0  0  0  0  0
   17.0243   -4.5359   -1.4015 C   0  0  0  0  0  0  0  0  0  0  0  0
   20.2129   -4.5454   -1.5006 C   0  0  0  0  0  0  0  0  0  0  0  0
   13.3706   -8.4010   -1.4492 C   0  0  0  0  0  0  0  0  0  0  0  0
   19.5448  -16.7096   -1.1026 C   0  0  0  0  0  0  0  0  0  0  0  0
   25.3819  -10.8068   -1.1561 C   0  0  0  0  0  0  0  0  0  0  0  0
   20.0311   -3.4198   -0.7937 C   0  0  0  0  0  0  0  0  0  0  0  0
   12.2878   -8.6418   -0.6967 C   0  0  0  0  0  0  0  0  0  0  0  0
   20.4233  -17.8843   -1.4349 C   0  0  0  0  0  0  0  0  0  0  0  0
   26.5085  -11.7886   -1.3281 C   0  0  0  0  0  0  0  0  0  0  0  0
   21.9066  -13.1092   -1.1619 H   0  0  0  0  0  0  0  0  0  0  0  0
   15.5193  -13.1211   -1.2439 H   0  0  0  0  0  0  0  0  0  0  0  0
   21.8243   -6.6991   -1.3699 H   0  0  0  0  0  0  0  0  0  0  0  0
   15.4484   -6.7533   -1.3538 H   0  0  0  0  0  0  0  0  0  0  0  0
   20.8530  -15.3637   -2.1563 H   0  0  0  0  0  0  0  0  0  0  0  0
   20.9975  -15.2995   -0.3446 H   0  0  0  0  0  0  0  0  0  0  0  0
   23.9479  -12.1771   -0.3268 H   0  0  0  0  0  0  0  0  0  0  0  0
   23.9942  -12.1286   -2.1377 H   0  0  0  0  0  0  0  0  0  0  0  0
   16.0463  -14.9562   -0.7387 H   0  0  0  0  0  0  0  0  0  0  0  0
   16.9377  -15.7260   -2.1108 H   0  0  0  0  0  0  0  0  0  0  0  0
   17.4003  -16.0738   -0.3855 H   0  0  0  0  0  0  0  0  0  0  0  0
   24.7924   -8.5743   -0.6292 H   0  0  0  0  0  0  0  0  0  0  0  0
   24.3704   -8.2067   -2.3585 H   0  0  0  0  0  0  0  0  0  0  0  0
   23.6777   -7.2237   -1.0041 H   0  0  0  0  0  0  0  0  0  0  0  0
   12.5446  -11.0758   -1.9545 H   0  0  0  0  0  0  0  0  0  0  0  0
   13.0626  -11.8208   -0.3832 H   0  0  0  0  0  0  0  0  0  0  0  0
   13.6319  -12.5121   -1.9593 H   0  0  0  0  0  0  0  0  0  0  0  0
   17.4405   -3.6831   -0.8297 H   0  0  0  0  0  0  0  0  0  0  0  0
   16.8732   -4.2338   -2.4592 H   0  0  0  0  0  0  0  0  0  0  0  0
   16.0435   -4.8051   -0.9507 H   0  0  0  0  0  0  0  0  0  0  0  0
   21.0809   -4.6133   -2.1892 H   0  0  0  0  0  0  0  0  0  0  0  0
   13.3792   -7.5400   -2.1494 H   0  0  0  0  0  0  0  0  0  0  0  0
   18.7066  -16.6943   -1.8320 H   0  0  0  0  0  0  0  0  0  0  0  0
   19.1517  -16.8412   -0.0710 H   0  0  0  0  0  0  0  0  0  0  0  0
   25.4896  -10.3254   -0.1583 H   0  0  0  0  0  0  0  0  0  0  0  0
   25.4419  -10.0395   -1.9593 H   0  0  0  0  0  0  0  0  0  0  0  0
   19.1774   -3.3276   -0.0927 H   0  0  0  0  0  0  0  0  0  0  0  0
   20.7461   -2.5757   -0.9082 H   0  0  0  0  0  0  0  0  0  0  0  0
   12.2820   -9.5056    0.0000 H   0  0  0  0  0  0  0  0  0  0  0  0
   11.3978   -7.9789   -0.7703 H   0  0  0  0  0  0  0  0  0  0  0  0
   18.5078  -10.0631    0.0000 Fe  0  2  0  0  0  0  0  0  0  0  0  0
  1 41  1  0  0  0  0
  2 41  2  0  0  0  0
  3 42  1  0  0  0  0
  4 42  2  0  0  0  0
  5  9  2  0  0  0  0
  5 11  1  0  0  0  0
  6 10  1  0  0  0  0
  6 12  1  0  0  0  0
  7 13  1  0  0  0  0
  7 16  1  0  0  0  0
  8 14  2  0  0  0  0
  8 15  1  0  0  0  0
  9 17  1  0  0  0  0
  9 18  1  0  0  0  0
 10 17  2  0  0  0  0
 10 19  1  0  0  0  0
 11 20  2  0  0  0  0
 11 22  1  0  0  0  0
 12 21  2  0  0  0  0
 12 23  1  0  0  0  0
 13 20  1  0  0  0  0
 13 25  2  0  0  0  0
 14 21  1  0  0  0  0
 14 27  1  0  0  0  0
 15 24  2  0  0  0  0
 15 26  1  0  0  0  0
 16 24  1  0  0  0  0
 16 28  2  0  0  0  0
 17 43  1  0  0  0  0
 18 22  2  0  0  0  0
 18 29  1  0  0  0  0
 19 23  2  0  0  0  0
 19 30  1  0  0  0  0
 20 44  1  0  0  0  0
 21 45  1  0  0  0  0
 22 31  1  0  0  0  0
 23 32  1  0  0  0  0
 24 46  1  0  0  0  0
 25 28  1  0  0  0  0
 25 33  1  0  0  0  0
 26 27  2  0  0  0  0
 26 34  1  0  0  0  0
 27 35  1  0  0  0  0
 28 36  1  0  0  0  0
 29 37  1  0  0  0  0
 29 47  1  0  0  0  0
 29 48  1  0  0  0  0
 30 38  1  0  0  0  0
 30 49  1  0  0  0  0
 30 50  1  0  0  0  0
 31 51  1  0  0  0  0
 31 52  1  0  0  0  0
 31 53  1  0  0  0  0
 32 54  1  0  0  0  0
 32 55  1  0  0  0  0
 32 56  1  0  0  0  0
 33 57  1  0  0  0  0
 33 58  1  0  0  0  0
 33 59  1  0  0  0  0
 34 60  1  0  0  0  0
 34 61  1  0  0  0  0
 34 62  1  0  0  0  0
 35 39  2  0  0  0  0
 35 63  1  0  0  0  0
 36 40  2  0  0  0  0
 36 64  1  0  0  0  0
 37 41  1  0  0  0  0
 37 65  1  0  0  0  0
 37 66  1  0  0  0  0
 38 42  1  0  0  0  0
 38 67  1  0  0  0  0
 38 68  1  0  0  0  0
 39 69  1  0  0  0  0
 39 70  1  0  0  0  0
 40 71  1  0  0  0  0
 40 72  1  0  0  0  0
M  CHG  5   1  -1   3  -1   6  -1   7  -1  73   2
M  END
